<?xml version="1.0" encoding="UTF-8"?>

<!-- generated on 2024-04-20 13:07:44 by Eclipse SUMO netedit Version 1.18.0
<configuration xmlns:xsi="http://www.w3.org/2001/XMLSchema-instance" xsi:noNamespaceSchemaLocation="http://sumo.dlr.de/xsd/neteditConfiguration.xsd">

    <input>
        <sumocfg-file value="C:\Users\LENOVO\Desktop\platoon\refactored-octo-waffle\maps\jesus\jesus.sumocfg"/>
        <route-files value="C:\Users\LENOVO\Desktop\platoon\refactored-octo-waffle\maps\jesus\jesus.rou.xml"/>
        <sumo-net-file value="C:\Users\LENOVO\Desktop\platoon\refactored-octo-waffle\maps\jesus\jesus.net.xml"/>
    </input>

    <output>
        <output-file value="C:\Users\LENOVO\Desktop\platoon\refactored-octo-waffle\maps\jesus\jesus.net.xml"/>
    </output>

    <processing>
        <geometry.min-radius.fix.railways value="false"/>
        <geometry.max-grade.fix value="false"/>
        <offset.disable-normalization value="true"/>
        <lefthand value="0"/>
    </processing>

    <junctions>
        <no-turnarounds value="true"/>
        <junctions.corner-detail value="5"/>
        <junctions.limit-turn-speed value="5.50"/>
        <rectangular-lane-cut value="0"/>
    </junctions>

    <pedestrian>
        <walkingareas value="0"/>
    </pedestrian>

</configuration>
-->

<net version="1.16" junctionCornerDetail="5" limitTurnSpeed="5.50" xmlns:xsi="http://www.w3.org/2001/XMLSchema-instance" xsi:noNamespaceSchemaLocation="http://sumo.dlr.de/xsd/net_file.xsd">

    <location netOffset="0.00,0.00" convBoundary="25.00,0.00,125.00,125.00" origBoundary="-10000000000.00,-10000000000.00,10000000000.00,10000000000.00" projParameter="!"/>

    <edge id=":J1_0" function="internal">
        <lane id=":J1_0_0" index="0" speed="3.93" length="2.20" shape="74.01,-1.26 74.52,-1.56 75.03,-1.65 75.53,-1.54 76.03,-1.23"/>
    </edge>
    <edge id=":J2_0" function="internal">
        <lane id=":J2_0_0" index="0" speed="3.92" length="3.30" shape="24.02,76.27 23.36,75.59 23.15,74.92 23.41,74.28 24.14,73.65"/>
    </edge>
    <edge id=":J3_0" function="internal">
        <lane id=":J3_0_0" index="0" speed="3.90" length="2.75" shape="76.15,126.11 75.55,126.58 74.96,126.72 74.37,126.55 73.79,126.05"/>
    </edge>
    <edge id=":J4_0" function="internal">
        <lane id=":J4_0_0" index="0" speed="3.91" length="3.09" shape="125.99,73.74 126.60,74.38 126.80,75.01 126.59,75.64 125.97,76.27"/>
    </edge>
    <edge id=":J5_0" function="internal">
        <lane id=":J5_0_0" index="0" speed="5.88" length="6.66" shape="76.69,81.17 83.20,82.56"/>
    </edge>
    <edge id=":J5_1" function="internal">
        <lane id=":J5_1_0" index="0" speed="4.83" length="1.77" shape="76.69,81.17 76.32,81.33 76.00,81.13 75.65,80.82 75.15,80.66"/>
    </edge>
    <edge id=":J6_0" function="internal">
        <lane id=":J6_0_0" index="0" speed="6.42" length="6.98" shape="83.32,81.72 81.22,80.69 79.44,80.23 77.98,80.34 76.83,81.03"/>
    </edge>
    <edge id=":J6_1" function="internal">
        <lane id=":J6_1_0" index="0" speed="7.14" length="9.01" shape="83.32,81.72 80.49,79.29 79.85,76.61 81.02,74.37"/>
    </edge>
    <edge id=":J6_4" function="internal">
        <lane id=":J6_4_0" index="0" speed="7.14" length="5.74" shape="81.02,74.37 81.40,73.65 85.13,70.43"/>
    </edge>
    <edge id=":J6_2" function="internal">
        <lane id=":J6_2_0" index="0" speed="4.32" length="5.31" shape="80.69,72.15 80.90,72.60 81.70,72.47 83.12,71.75 85.13,70.43"/>
    </edge>
    <edge id=":J6_3" function="internal">
        <lane id=":J6_3_0" index="0" speed="11.84" length="10.00" shape="80.69,72.15 80.31,75.09 79.82,77.12 78.80,78.89 76.83,81.03"/>
    </edge>
    <edge id=":J7_0" function="internal">
        <lane id=":J7_0_0" index="0" speed="13.89" length="5.21" shape="81.21,66.85 80.66,68.24 80.63,69.30 80.76,70.40 80.72,71.95"/>
    </edge>
    <edge id=":J7_1" function="internal">
        <lane id=":J7_1_0" index="0" speed="4.59" length="5.80" shape="72.09,69.47 72.74,69.22 72.78,68.31 72.21,66.73 71.04,64.50"/>
    </edge>
    <edge id=":J7_2" function="internal">
        <lane id=":J7_2_0" index="0" speed="6.50" length="9.32" shape="72.09,69.47 75.95,69.90 78.67,70.46 80.26,71.15 80.72,71.95"/>
    </edge>
    <edge id=":J8_0" function="internal">
        <lane id=":J8_0_0" index="0" speed="13.89" length="5.55" shape="66.44,69.41 67.96,69.85 69.08,69.76 70.24,69.50 71.89,69.45"/>
    </edge>
    <edge id=":J8_1" function="internal">
        <lane id=":J8_1_0" index="0" speed="4.39" length="5.32" shape="69.33,78.07 69.10,77.55 68.27,77.61 66.84,78.24 64.81,79.44"/>
    </edge>
    <edge id=":J8_2" function="internal">
        <lane id=":J8_2_0" index="0" speed="6.61" length="9.33" shape="69.33,78.07 69.78,74.24 70.36,71.53 71.06,69.93 71.89,69.45"/>
    </edge>
    <edge id=":J9_0" function="internal">
        <lane id=":J9_0_0" index="0" speed="5.57" length="6.76" shape="74.96,80.66 72.41,80.51 70.62,80.06 69.58,79.31 69.31,78.27"/>
    </edge>
    <edge id=":J9_1" function="internal">
        <lane id=":J9_1_0" index="0" speed="9.00" length="4.36" shape="67.44,82.08 68.26,81.08 68.79,80.34 69.12,79.52 69.31,78.27"/>
    </edge>

    <edge id="-E1" from="J8" to="J2" priority="-1" length="55.92" shape="71.35,73.36 44.88,90.28 25.00,75.00">
        <lane id="-E1_0" index="0" speed="13.89" length="55.92" shape="64.81,79.44 44.80,92.23 24.02,76.27"/>
    </edge>
    <edge id="-E11" from="J7" to="J1" priority="-1" length="86.19" shape="76.90,71.48 47.95,21.17 75.00,0.00">
        <lane id="-E11_0" index="0" speed="13.89" length="86.19" shape="71.04,64.50 45.87,20.77 74.01,-1.26"/>
    </edge>
    <edge id="-E4" from="J6" to="J4" priority="-1" length="55.98" shape="78.45,77.02 104.57,58.88 125.00,75.00">
        <lane id="-E4_0" index="0" speed="13.89" length="55.98" shape="85.13,70.43 104.63,56.89 125.99,73.74"/>
    </edge>
    <edge id="E0" from="J6" to="J5" priority="-1" shape="78.45,77.02 78.04,77.60 77.52,78.11">
        <lane id="E0_0" index="0" speed="13.89" length="0.20" shape="76.83,81.03 76.69,81.17"/>
    </edge>
    <edge id="E1" from="J2" to="J8" priority="-1" length="55.77" shape="25.00,75.00 45.56,61.81 71.35,73.36">
        <lane id="E1_0" index="0" speed="13.89" length="55.77" shape="24.14,73.65 45.42,60.00 66.44,69.41"/>
    </edge>
    <edge id="E11" from="J1" to="J7" priority="-1" length="86.21" shape="75.00,0.00 102.83,23.30 76.90,71.48">
        <lane id="E11_0" index="0" speed="13.89" length="86.21" shape="76.03,-1.23 104.86,22.91 81.21,66.85"/>
    </edge>
    <edge id="E2" from="J7" to="J6" priority="-1" shape="76.90,71.48 78.85,73.92 78.45,77.02">
        <lane id="E2_0" index="0" speed="13.89" length="0.20" shape="80.72,71.95 80.69,72.15"/>
    </edge>
    <edge id="E3" from="J8" to="J7" priority="-1" shape="71.35,73.36 73.71,71.21 76.90,71.48">
        <lane id="E3_0" index="0" speed="13.89" length="0.20" shape="71.89,69.45 72.09,69.47"/>
    </edge>
    <edge id="E4" from="J4" to="J6" priority="-1" length="56.01" shape="125.00,75.00 103.33,91.55 78.45,77.02">
        <lane id="E4_0" index="0" speed="13.89" length="56.01" shape="125.97,76.27 103.45,93.47 83.32,81.72"/>
    </edge>
    <edge id="E5" from="J9" to="J8" priority="-1" shape="72.54,78.15 71.12,75.96 71.35,73.36">
        <lane id="E5_0" index="0" speed="13.89" length="0.20" shape="69.31,78.27 69.33,78.07"/>
    </edge>
    <edge id="E6" from="J5" to="J9" priority="-1" shape="77.52,78.11 75.04,79.00 72.54,78.15">
        <lane id="E6_0" index="0" speed="13.89" length="0.19" shape="75.15,80.66 74.96,80.66"/>
    </edge>
    <edge id="E7.4" from="J5" to="J3" priority="-1" length="56.40" shape="77.52,78.11 97.00,102.09 75.00,125.00">
        <lane id="E7.4_0" index="0" speed="13.89" length="56.40" shape="83.20,82.56 99.13,102.18 76.15,126.11"/>
    </edge>
    <edge id="E8" from="J3" to="J9" priority="-1" length="56.30" shape="75.00,125.00 54.40,101.37 72.54,78.15">
        <lane id="E8_0" index="0" speed="13.89" length="56.30" shape="73.79,126.05 52.33,101.43 67.44,82.08"/>
    </edge>

    <junction id="J1" type="priority" x="75.00" y="0.00" incLanes="-E11_0" intLanes=":J1_0_0" shape="75.00,0.00 77.05,-2.45 75.72,-3.20 75.05,-3.30 74.38,-3.22 73.71,-2.96 73.03,-2.52">
        <request index="0" response="0" foes="0" cont="0"/>
    </junction>
    <junction id="J2" type="priority" x="25.00" y="75.00" incLanes="-E1_0" intLanes=":J2_0_0" shape="23.05,77.54 25.00,75.00 23.27,72.31 21.55,73.98 21.30,74.84 21.47,75.72 22.05,76.62">
        <request index="0" response="0" foes="0" cont="0"/>
    </junction>
    <junction id="J3" type="priority" x="75.00" y="125.00" incLanes="E7.4_0" intLanes=":J3_0_0" shape="77.31,127.22 75.00,125.00 72.59,127.10 74.13,128.29 74.92,128.45 75.71,128.32 76.50,127.91">
        <request index="0" response="0" foes="0" cont="0"/>
    </junction>
    <junction id="J4" type="priority" x="125.00" y="75.00" incLanes="-E4_0" intLanes=":J4_0_0" shape="126.98,72.49 125.00,75.00 126.94,77.54 128.40,75.87 128.59,75.03 128.42,74.18 127.88,73.34">
        <request index="0" response="0" foes="0" cont="0"/>
    </junction>
    <junction id="J5" type="priority" x="77.52" y="78.11" incLanes="E0_0" intLanes=":J5_0_0 :J5_1_0" shape="81.96,83.57 84.44,81.55 83.72,75.11 81.44,72.79 74.09,78.68 75.17,82.35 77.92,81.77 79.11,81.85 80.18,82.18 81.13,82.75">
        <request index="0" response="00" foes="00" cont="0"/>
        <request index="1" response="00" foes="00" cont="0"/>
    </junction>
    <junction id="J6" type="priority" x="78.45" y="77.02" incLanes="E4_0 E2_0" intLanes=":J6_0_0 :J6_4_0 :J6_2_0 :J6_3_0" shape="82.51,83.10 84.13,80.34 81.82,77.91 81.77,76.53 82.46,75.04 83.88,73.45 86.04,71.75 84.22,69.12 78.44,68.28 74.24,68.15 73.55,82.00 76.20,83.88">
        <request index="0" response="1000" foes="1000" cont="0"/>
        <request index="1" response="0100" foes="0100" cont="1"/>
        <request index="2" response="0000" foes="0010" cont="0"/>
        <request index="3" response="0000" foes="0001" cont="0"/>
    </junction>
    <junction id="J7" type="priority" x="76.90" y="71.48" incLanes="E11_0 E3_0" intLanes=":J7_0_0 :J7_1_0 :J7_2_0" shape="78.47,76.89 81.99,74.60 81.98,71.93 81.85,70.96 81.81,70.02 82.02,68.96 82.62,67.61 79.80,66.10 77.69,68.22 76.51,68.19 75.23,67.42 73.87,65.93 72.42,63.70 69.65,65.30 68.69,71.46 68.78,75.70">
        <request index="0" response="100" foes="100" cont="0"/>
        <request index="1" response="000" foes="000" cont="0"/>
        <request index="2" response="000" foes="001" cont="0"/>
    </junction>
    <junction id="J8" type="priority" x="71.35" y="73.36" incLanes="E1_0 E5_0" intLanes=":J8_0_0 :J8_1_0 :J8_2_0" shape="76.60,71.45 74.09,68.03 71.44,68.20 70.48,68.41 69.55,68.54 68.48,68.43 67.09,67.95 65.79,70.87 68.05,72.78 68.11,73.92 67.44,75.19 66.05,76.58 63.95,78.09 65.67,80.79 71.22,81.99 75.10,82.10">
        <request index="0" response="100" foes="100" cont="0"/>
        <request index="1" response="000" foes="000" cont="0"/>
        <request index="2" response="000" foes="001" cont="0"/>
    </junction>
    <junction id="J9" type="priority" x="72.54" y="78.15" incLanes="E6_0 E8_0" intLanes=":J9_0_0 :J9_1_0" shape="74.21,82.10 75.24,78.93 71.34,73.45 67.96,75.36 67.79,77.65 67.66,78.46 67.40,79.22 66.93,80.06 66.18,81.10 68.70,83.07 70.09,81.96 70.95,81.70 71.93,81.64 73.01,81.77">
        <request index="0" response="00" foes="10" cont="0"/>
        <request index="1" response="01" foes="01" cont="0"/>
    </junction>

    <junction id=":J6_4_0" type="internal" x="81.02" y="74.37" incLanes=":J6_1_0 E2_0" intLanes=":J6_2_0"/>

    <connection from="-E1" to="E1" fromLane="0" toLane="0" via=":J2_0_0" dir="l" state="M"/>
    <connection from="-E11" to="E11" fromLane="0" toLane="0" via=":J1_0_0" dir="l" state="M"/>
    <connection from="-E4" to="E4" fromLane="0" toLane="0" via=":J4_0_0" dir="l" state="M"/>
    <connection from="E0" to="E7.4" fromLane="0" toLane="0" via=":J5_0_0" dir="r" state="M"/>
    <connection from="E0" to="E6" fromLane="0" toLane="0" via=":J5_1_0" dir="s" state="M"/>
    <connection from="E1" to="E3" fromLane="0" toLane="0" via=":J8_0_0" dir="r" state="m" visibility="9.00"/>
    <connection from="E11" to="E2" fromLane="0" toLane="0" via=":J7_0_0" dir="r" state="m" visibility="9.00"/>
    <connection from="E2" to="-E4" fromLane="0" toLane="0" via=":J6_2_0" dir="r" state="M"/>
    <connection from="E2" to="E0" fromLane="0" toLane="0" via=":J6_3_0" dir="s" state="M"/>
    <connection from="E3" to="-E11" fromLane="0" toLane="0" via=":J7_1_0" dir="r" state="M"/>
    <connection from="E3" to="E2" fromLane="0" toLane="0" via=":J7_2_0" dir="s" state="M"/>
    <connection from="E4" to="E0" fromLane="0" toLane="0" via=":J6_0_0" dir="r" state="m" visibility="9.00"/>
    <connection from="E4" to="-E4" fromLane="0" toLane="0" via=":J6_1_0" dir="l" state="m"/>
    <connection from="E5" to="-E1" fromLane="0" toLane="0" via=":J8_1_0" dir="r" state="M"/>
    <connection from="E5" to="E3" fromLane="0" toLane="0" via=":J8_2_0" dir="s" state="M"/>
    <connection from="E6" to="E5" fromLane="0" toLane="0" via=":J9_0_0" dir="s" state="M"/>
    <connection from="E7.4" to="E8" fromLane="0" toLane="0" via=":J3_0_0" dir="l" state="M"/>
    <connection from="E8" to="E5" fromLane="0" toLane="0" via=":J9_1_0" dir="r" state="m" visibility="9.00"/>

    <connection from=":J1_0" to="E11" fromLane="0" toLane="0" dir="l" state="M"/>
    <connection from=":J2_0" to="E1" fromLane="0" toLane="0" dir="l" state="M"/>
    <connection from=":J3_0" to="E8" fromLane="0" toLane="0" dir="l" state="M"/>
    <connection from=":J4_0" to="E4" fromLane="0" toLane="0" dir="l" state="M"/>
    <connection from=":J5_0" to="E7.4" fromLane="0" toLane="0" dir="r" state="M"/>
    <connection from=":J5_1" to="E6" fromLane="0" toLane="0" dir="s" state="M"/>
    <connection from=":J6_0" to="E0" fromLane="0" toLane="0" dir="r" state="M"/>
    <connection from=":J6_1" to="-E4" fromLane="0" toLane="0" via=":J6_4_0" dir="l" state="m"/>
    <connection from=":J6_4" to="-E4" fromLane="0" toLane="0" dir="l" state="M"/>
    <connection from=":J6_2" to="-E4" fromLane="0" toLane="0" dir="r" state="M"/>
    <connection from=":J6_3" to="E0" fromLane="0" toLane="0" dir="s" state="M"/>
    <connection from=":J7_0" to="E2" fromLane="0" toLane="0" dir="r" state="M"/>
    <connection from=":J7_1" to="-E11" fromLane="0" toLane="0" dir="r" state="M"/>
    <connection from=":J7_2" to="E2" fromLane="0" toLane="0" dir="s" state="M"/>
    <connection from=":J8_0" to="E3" fromLane="0" toLane="0" dir="r" state="M"/>
    <connection from=":J8_1" to="-E1" fromLane="0" toLane="0" dir="r" state="M"/>
    <connection from=":J8_2" to="E3" fromLane="0" toLane="0" dir="s" state="M"/>
    <connection from=":J9_0" to="E5" fromLane="0" toLane="0" dir="s" state="M"/>
    <connection from=":J9_1" to="E5" fromLane="0" toLane="0" dir="r" state="M"/>

    <roundabout nodes="J5 J6 J7 J8 J9" edges="E0 E2 E3 E5 E6"/>

</net>
