<?xml version="1.0" encoding="UTF-8"?>

<!-- generated on 2024-04-20 13:07:28 by Eclipse SUMO netedit Version 1.18.0
-->

<routes xmlns:xsi="http://www.w3.org/2001/XMLSchema-instance" xsi:noNamespaceSchemaLocation="http://sumo.dlr.de/xsd/routes_file.xsd">
    <!-- Routes -->
    <route id="r_0" edges="-E11 E11 E2 E0 E7.4 E8 E5 E3 -E11"/>
    <route id="r_1" edges="-E11 E11 E2 E0 E6 E5 -E1 E1 E3 E2 E0 E6 E5 -E1 E1 E3 -E11"/>
    <route id="r_2" edges="-E11 E11 E2 -E4 E4 E0 E6 E5 E3 -E11"/>
    <!-- Vehicles, persons and containers (sorted by depart) -->
    <trip id="t_0" depart="0.00" from="-E11" to="-E11" via="E11 E7.4 E8"/>
    <trip id="t_1" depart="0.00" from="-E11" to="-E11" via="E11 -E4 E4"/>
    <trip id="t_2" depart="0.00" from="-E11" to="-E11" via="E11 -E1 E1"/>
</routes>
