<?xml version="1.0" encoding="UTF-8"?>

<!-- generated on 2024-04-22 13:12:31 by Eclipse SUMO sumo Version 1.18.0
-->

<configuration xmlns:xsi="http://www.w3.org/2001/XMLSchema-instance" xsi:noNamespaceSchemaLocation="http://sumo.dlr.de/xsd/sumoConfiguration.xsd">

    <input>
        <net-file value="corss_ext.net.xml"/>
        <route-files value="cross_ext.rou.xml"/>
        <additional-files value="cross.add.xml"/>
    </input>

</configuration>
