<?xml version="1.0" encoding="UTF-8"?>

<!-- generated on 2024-04-21 22:48:27 by Eclipse SUMO netedit Version 1.18.0
<configuration xmlns:xsi="http://www.w3.org/2001/XMLSchema-instance" xsi:noNamespaceSchemaLocation="http://sumo.dlr.de/xsd/neteditConfiguration.xsd">

    <input>
        <sumocfg-file value="C:\Users\mmkvm\Desktop\refactored-octo-waffle\maps\cross\cross.sumocfg"/>
        <route-files value="C:\Users\mmkvm\Desktop\refactored-octo-waffle\maps\cross\cross.rou.xml"/>
        <sumo-net-file value="C:\Users\mmkvm\Desktop\refactored-octo-waffle\maps\cross\cross.net.xml"/>
    </input>

    <output>
        <output-file value="C:\Users\mmkvm\Desktop\refactored-octo-waffle\maps\cross\cross.net.xml"/>
    </output>

    <processing>
        <geometry.min-radius.fix.railways value="false"/>
        <geometry.max-grade.fix value="false"/>
        <offset.disable-normalization value="true"/>
        <lefthand value="0"/>
    </processing>

    <junctions>
        <no-turnarounds value="true"/>
        <junctions.corner-detail value="5"/>
        <junctions.limit-turn-speed value="5.50"/>
        <rectangular-lane-cut value="0"/>
    </junctions>

    <pedestrian>
        <walkingareas value="0"/>
    </pedestrian>

</configuration>
-->

<net version="1.16" junctionCornerDetail="5" limitTurnSpeed="5.50" xmlns:xsi="http://www.w3.org/2001/XMLSchema-instance" xsi:noNamespaceSchemaLocation="http://sumo.dlr.de/xsd/net_file.xsd">

    <location netOffset="0.00,0.00" convBoundary="-20.00,30.00,120.00,90.00" origBoundary="-10000000000.00,-10000000000.00,10000000000.00,10000000000.00" projParameter="!"/>

    <edge id=":J0_0" function="internal">
        <lane id=":J0_0_0" index="0" speed="8.37" length="3.90" shape="12.47,61.60 11.32,61.62 10.53,61.76 9.80,62.08 8.83,62.70"/>
    </edge>
    <edge id=":J0_1" function="internal">
        <lane id=":J0_1_0" index="0" speed="8.37" length="3.90" shape="8.83,57.30 9.80,57.92 10.53,58.24 11.32,58.38 12.47,58.40"/>
    </edge>
    <edge id=":J0_2" function="internal">
        <lane id=":J0_2_0" index="0" speed="5.18" length="3.06" shape="8.83,57.30 10.35,58.65 10.71,59.61"/>
    </edge>
    <edge id=":J0_3" function="internal">
        <lane id=":J0_3_0" index="0" speed="5.18" length="3.89" shape="10.71,59.61 10.86,60.00 10.35,61.35 8.83,62.70"/>
    </edge>
    <edge id=":J1_0" function="internal">
        <lane id=":J1_0_0" index="0" speed="3.99" length="3.99" shape="-19.11,81.33 -20.20,81.87 -20.98,81.83 -21.44,81.20 -21.60,80.00"/>
    </edge>
    <edge id=":J2_0" function="internal">
        <lane id=":J2_0_0" index="0" speed="3.99" length="3.99" shape="-21.60,40.00 -21.44,38.80 -20.98,38.17 -20.20,38.13 -19.11,38.67"/>
    </edge>
    <edge id=":J3_0" function="internal">
        <lane id=":J3_0_0" index="0" speed="5.54" length="9.44" shape="81.82,70.51 80.56,67.87 79.08,66.85 77.39,67.44 75.48,69.66"/>
    </edge>
    <edge id=":J3_1" function="internal">
        <lane id=":J3_1_0" index="0" speed="9.65" length="15.91" shape="81.82,70.51 79.97,66.61 77.38,63.83 74.07,62.16 70.02,61.60"/>
    </edge>
    <edge id=":J3_2" function="internal">
        <lane id=":J3_2_0" index="0" speed="13.89" length="19.95" shape="81.82,70.51 80.18,66.29 77.92,61.33 75.44,56.47 73.13,52.58"/>
    </edge>
    <edge id=":J3_3" function="internal">
        <lane id=":J3_3_0" index="0" speed="7.40" length="19.19" shape="81.82,70.51 80.75,64.99 82.09,62.10 85.85,61.85 92.03,64.23"/>
    </edge>
    <edge id=":J3_4" function="internal">
        <lane id=":J3_4_0" index="0" speed="5.46" length="10.02" shape="92.66,58.48 89.59,59.60 88.46,60.93 89.28,62.47 92.03,64.23"/>
    </edge>
    <edge id=":J3_5" function="internal">
        <lane id=":J3_5_0" index="0" speed="13.89" length="20.74" shape="92.66,58.48 88.32,60.16 83.29,62.97 78.66,66.33 75.48,69.66"/>
    </edge>
    <edge id=":J3_6" function="internal">
        <lane id=":J3_6_0" index="0" speed="13.89" length="22.88" shape="92.66,58.48 87.78,59.48 81.40,60.50 74.99,61.28 70.02,61.60"/>
    </edge>
    <edge id=":J3_7" function="internal">
        <lane id=":J3_7_0" index="0" speed="11.35" length="17.68" shape="92.66,58.48 86.43,59.37 81.10,58.68 76.66,56.42 75.96,55.66"/>
    </edge>
    <edge id=":J3_15" function="internal">
        <lane id=":J3_15_0" index="0" speed="11.35" length="4.18" shape="75.96,55.66 73.13,52.58"/>
    </edge>
    <edge id=":J3_8" function="internal">
        <lane id=":J3_8_0" index="0" speed="8.30" length="13.69" shape="83.43,54.78 83.41,57.02 84.84,59.35 87.72,61.75 92.03,64.23"/>
    </edge>
    <edge id=":J3_9" function="internal">
        <lane id=":J3_9_0" index="0" speed="13.89" length="16.91" shape="83.43,54.78 81.91,58.52 79.90,62.44 77.67,66.25 75.48,69.66"/>
    </edge>
    <edge id=":J3_10" function="internal">
        <lane id=":J3_10_0" index="0" speed="9.70" length="16.09" shape="83.43,54.78 81.74,57.76 78.94,59.89 75.03,61.17 70.02,61.60"/>
    </edge>
    <edge id=":J3_11" function="internal">
        <lane id=":J3_11_0" index="0" speed="6.77" length="14.85" shape="83.43,54.78 81.68,57.95 79.38,58.65 76.53,56.86 73.13,52.58"/>
    </edge>
    <edge id=":J3_12" function="internal">
        <lane id=":J3_12_0" index="0" speed="5.61" length="9.32" shape="70.02,58.40 72.84,58.04 74.29,56.95 74.39,55.13 73.13,52.58"/>
    </edge>
    <edge id=":J3_13" function="internal">
        <lane id=":J3_13_0" index="0" speed="13.89" length="22.86" shape="70.02,58.40 74.94,59.00 81.22,60.47 87.41,62.37 92.03,64.23"/>
    </edge>
    <edge id=":J3_14" function="internal">
        <lane id=":J3_14_0" index="0" speed="7.46" length="3.61" shape="70.02,58.40 73.60,58.88"/>
    </edge>
    <edge id=":J3_16" function="internal">
        <lane id=":J3_16_0" index="0" speed="7.46" length="14.05" shape="73.60,58.88 75.23,59.10 77.87,61.21 77.96,64.73 75.48,69.66"/>
    </edge>
    <edge id=":J4_0" function="internal">
        <lane id=":J4_0_0" index="0" speed="3.99" length="3.99" shape="58.67,30.89 58.13,29.80 58.17,29.02 58.80,28.56 60.00,28.40"/>
    </edge>
    <edge id=":J5_0" function="internal">
        <lane id=":J5_0_0" index="0" speed="3.92" length="3.25" shape="90.00,28.40 90.93,28.53 91.49,28.93 91.69,29.58 91.52,30.51"/>
    </edge>
    <edge id=":J6_0" function="internal">
        <lane id=":J6_0_0" index="0" speed="3.99" length="3.99" shape="64.65,85.91 64.11,87.00 64.15,87.78 64.77,88.24 65.98,88.40"/>
    </edge>
    <edge id=":J7_0" function="internal">
        <lane id=":J7_0_0" index="0" speed="3.92" length="3.25" shape="85.56,88.40 86.49,88.27 87.05,87.87 87.25,87.22 87.08,86.29"/>
    </edge>
    <edge id=":J8_0" function="internal">
        <lane id=":J8_0_0" index="0" speed="3.95" length="3.61" shape="116.08,76.25 117.10,76.60 117.82,76.47 118.26,75.88 118.40,74.82"/>
    </edge>
    <edge id=":J9_0" function="internal">
        <lane id=":J9_0_0" index="0" speed="3.91" length="3.07" shape="118.40,54.10 118.28,53.23 117.90,52.69 117.28,52.46 116.41,52.55"/>
    </edge>

    <edge id="-E3" from="J3" to="J0" priority="-1">
        <lane id="-E3_0" index="0" speed="13.89" length="57.55" shape="70.02,61.60 12.47,61.60"/>
    </edge>
    <edge id="E0" from="J0" to="J1" priority="-1" length="36.00">
        <lane id="E0_0" index="0" speed="13.89" length="36.00" shape="8.83,62.70 -19.11,81.33"/>
    </edge>
    <edge id="E1" from="J1" to="J2" priority="-1">
        <lane id="E1_0" index="0" speed="13.89" length="40.00" shape="-21.60,80.00 -21.60,40.00"/>
    </edge>
    <edge id="E10" from="J3" to="J8" priority="-1" length="30.00">
        <lane id="E10_0" index="0" speed="13.89" length="30.00" shape="92.03,64.23 116.08,76.25"/>
    </edge>
    <edge id="E11" from="J8" to="J9" priority="-1" length="30.00">
        <lane id="E11_0" index="0" speed="13.89" length="30.00" shape="118.40,74.82 118.40,54.10"/>
    </edge>
    <edge id="E12" from="J9" to="J3" priority="-1" length="30.00">
        <lane id="E12_0" index="0" speed="13.89" length="30.00" shape="116.41,52.55 92.66,58.48"/>
    </edge>
    <edge id="E2" from="J2" to="J0" priority="-1" length="36.00">
        <lane id="E2_0" index="0" speed="13.89" length="36.00" shape="-19.11,38.67 8.83,57.30"/>
    </edge>
    <edge id="E3" from="J0" to="J3" priority="-1">
        <lane id="E3_0" index="0" speed="13.89" length="57.55" shape="12.47,58.40 70.02,58.40"/>
    </edge>
    <edge id="E4" from="J3" to="J4" priority="-1" length="30.00">
        <lane id="E4_0" index="0" speed="13.89" length="30.00" shape="73.13,52.58 58.67,30.89"/>
    </edge>
    <edge id="E5" from="J4" to="J5" priority="-1" length="30.00">
        <lane id="E5_0" index="0" speed="13.89" length="30.00" shape="60.00,28.40 90.00,28.40"/>
    </edge>
    <edge id="E6" from="J5" to="J3" priority="-1" length="30.00">
        <lane id="E6_0" index="0" speed="13.89" length="30.00" shape="91.52,30.51 83.43,54.78"/>
    </edge>
    <edge id="E7" from="J3" to="J6" priority="-1" length="30.00">
        <lane id="E7_0" index="0" speed="13.89" length="30.00" shape="75.48,69.66 64.65,85.91"/>
    </edge>
    <edge id="E8" from="J6" to="J7" priority="-1">
        <lane id="E8_0" index="0" speed="13.89" length="19.58" shape="65.98,88.40 85.56,88.40"/>
    </edge>
    <edge id="E9" from="J7" to="J3" priority="-1" length="30.00">
        <lane id="E9_0" index="0" speed="13.89" length="30.00" shape="87.08,86.29 81.82,70.51"/>
    </edge>

    <junction id="J0" type="priority" x="10.00" y="60.00" incLanes="-E3_0 E2_0" intLanes=":J0_0_0 :J0_1_0 :J0_3_0" shape="12.47,63.20 12.47,56.80 11.38,56.76 11.00,56.68 10.65,56.54 10.24,56.31 9.72,55.97 7.95,58.63 8.86,59.54 8.97,60.00 8.86,60.46 8.52,60.91 7.95,61.37 9.72,64.03 10.65,63.46 11.00,63.32 11.38,63.24 11.85,63.21">
        <request index="0" response="000" foes="100" cont="0"/>
        <request index="1" response="000" foes="000" cont="0"/>
        <request index="2" response="001" foes="001" cont="1"/>
    </junction>
    <junction id="J1" type="priority" x="-20.00" y="80.00" incLanes="E0_0" intLanes=":J1_0_0" shape="-18.22,82.66 -20.00,80.00 -23.20,80.00 -22.65,82.95 -21.96,83.66 -20.99,83.84 -19.75,83.51">
        <request index="0" response="0" foes="0" cont="0"/>
    </junction>
    <junction id="J2" type="priority" x="-20.00" y="40.00" incLanes="E1_0" intLanes=":J2_0_0" shape="-23.20,40.00 -20.00,40.00 -18.22,37.34 -20.99,36.16 -21.96,36.34 -22.65,37.05 -23.06,38.27">
        <request index="0" response="0" foes="0" cont="0"/>
    </junction>
    <junction id="J3" type="priority" x="80.00" y="60.00" incLanes="E9_0 E12_0 E6_0 E3_0" intLanes=":J3_0_0 :J3_1_0 :J3_2_0 :J3_3_0 :J3_4_0 :J3_5_0 :J3_6_0 :J3_15_0 :J3_8_0 :J3_9_0 :J3_10_0 :J3_11_0 :J3_12_0 :J3_13_0 :J3_16_0" shape="80.30,71.01 83.33,70.00 82.63,67.10 82.74,65.07 83.66,63.91 85.40,63.63 87.95,64.21 91.31,65.66 92.75,62.80 91.19,61.69 91.03,61.21 91.29,60.77 91.96,60.38 93.05,60.04 92.27,56.93 89.68,57.48 87.64,57.70 86.14,57.59 85.20,57.15 84.80,56.39 84.94,55.29 81.91,54.27 80.23,56.53 79.09,56.49 77.75,55.67 76.21,54.07 74.46,51.70 71.80,53.47 72.59,55.32 72.47,55.97 72.00,56.43 71.18,56.71 70.02,56.80 70.02,63.20 72.31,63.35 73.97,63.82 74.98,64.59 75.34,65.68 75.07,67.07 74.15,68.77 76.81,70.55 78.19,69.12 78.79,69.00 79.35,69.28 79.85,69.95">
        <request index="0"  response="100001000100000" foes="100001000100000" cont="0"/>
        <request index="1"  response="100001001100000" foes="100011001100000" cont="0"/>
        <request index="2"  response="011000011100000" foes="011111011100000" cont="0"/>
        <request index="3"  response="010000100010000" foes="010000100010000" cont="0"/>
        <request index="4"  response="010000000000000" foes="010000100001000" cont="0"/>
        <request index="5"  response="010000000000000" foes="110001100000111" cont="0"/>
        <request index="6"  response="000000000000000" foes="110011100000110" cont="0"/>
        <request index="7"  response="001000000001000" foes="001111100001100" cont="1"/>
        <request index="8"  response="010000011110000" foes="010000011111000" cont="0"/>
        <request index="9"  response="110000011100100" foes="110000011100111" cont="0"/>
        <request index="10" response="110000011000110" foes="110000011000110" cont="0"/>
        <request index="11" response="001000010000100" foes="001000010000100" cont="0"/>
        <request index="12" response="000000000000000" foes="000100010000100" cont="0"/>
        <request index="13" response="000000001000000" foes="000011101111100" cont="0"/>
        <request index="14" response="000000001100000" foes="000011001100011" cont="1"/>
    </junction>
    <junction id="J4" type="priority" x="60.00" y="30.00" incLanes="E4_0" intLanes=":J4_0_0" shape="57.34,31.78 60.00,30.00 60.00,26.80 57.05,27.35 56.34,28.04 56.16,29.01 56.49,30.25">
        <request index="0" response="0" foes="0" cont="0"/>
    </junction>
    <junction id="J5" type="priority" x="90.00" y="30.00" incLanes="E5_0" intLanes=":J5_0_0" shape="90.00,26.80 90.00,30.00 93.04,31.01 93.32,28.67 92.98,27.85 92.31,27.27 91.32,26.92">
        <request index="0" response="0" foes="0" cont="0"/>
    </junction>
    <junction id="J6" type="priority" x="60.00" y="90.00" incLanes="E7_0" intLanes=":J6_0_0" shape="65.98,90.00 65.98,86.80 63.32,85.02 62.14,87.79 62.32,88.76 63.03,89.45 64.24,89.86">
        <request index="0" response="0" foes="0" cont="0"/>
    </junction>
    <junction id="J7" type="priority" x="90.00" y="90.00" incLanes="E8_0" intLanes=":J7_0_0" shape="88.60,85.79 85.56,86.80 85.56,90.00 87.87,89.53 88.54,88.95 88.88,88.13 88.90,87.08">
        <request index="0" response="0" foes="0" cont="0"/>
    </junction>
    <junction id="J8" type="priority" x="120.00" y="80.00" incLanes="E10_0" intLanes=":J8_0_0" shape="120.00,74.82 116.80,74.82 115.37,77.68 117.94,78.40 118.84,78.13 119.49,77.44 119.87,76.34">
        <request index="0" response="0" foes="0" cont="0"/>
    </junction>
    <junction id="J9" type="priority" x="120.00" y="50.00" incLanes="E11_0" intLanes=":J9_0_0" shape="116.80,54.10 120.00,54.10 119.56,51.93 119.01,51.27 118.23,50.90 117.24,50.80 116.02,50.99">
        <request index="0" response="0" foes="0" cont="0"/>
    </junction>

    <junction id=":J0_3_0" type="internal" x="10.71" y="59.61" incLanes=":J0_2_0 -E3_0" intLanes=":J0_0_0"/>
    <junction id=":J3_15_0" type="internal" x="75.96" y="55.66" incLanes=":J3_7_0 E3_0" intLanes=":J3_2_0 :J3_8_0 :J3_9_0 :J3_10_0 :J3_11_0 :J3_12_0"/>
    <junction id=":J3_16_0" type="internal" x="73.60" y="58.88" incLanes=":J3_14_0 E12_0" intLanes=":J3_0_0 :J3_1_0 :J3_5_0 :J3_6_0 :J3_9_0 :J3_10_0"/>

    <connection from="-E3" to="E0" fromLane="0" toLane="0" via=":J0_0_0" dir="s" state="M"/>
    <connection from="E0" to="E1" fromLane="0" toLane="0" via=":J1_0_0" dir="l" state="M"/>
    <connection from="E1" to="E2" fromLane="0" toLane="0" via=":J2_0_0" dir="l" state="M"/>
    <connection from="E10" to="E11" fromLane="0" toLane="0" via=":J8_0_0" dir="r" state="M"/>
    <connection from="E11" to="E12" fromLane="0" toLane="0" via=":J9_0_0" dir="r" state="M"/>
    <connection from="E12" to="E10" fromLane="0" toLane="0" via=":J3_4_0" dir="r" state="m"/>
    <connection from="E12" to="E7" fromLane="0" toLane="0" via=":J3_5_0" dir="R" state="m"/>
    <connection from="E12" to="-E3" fromLane="0" toLane="0" via=":J3_6_0" dir="s" state="M"/>
    <connection from="E12" to="E4" fromLane="0" toLane="0" via=":J3_7_0" dir="l" state="m"/>
    <connection from="E2" to="E3" fromLane="0" toLane="0" via=":J0_1_0" dir="s" state="M"/>
    <connection from="E2" to="E0" fromLane="0" toLane="0" via=":J0_2_0" dir="l" state="m"/>
    <connection from="E3" to="E4" fromLane="0" toLane="0" via=":J3_12_0" dir="r" state="M"/>
    <connection from="E3" to="E10" fromLane="0" toLane="0" via=":J3_13_0" dir="s" state="m"/>
    <connection from="E3" to="E7" fromLane="0" toLane="0" via=":J3_14_0" dir="l" state="m"/>
    <connection from="E4" to="E5" fromLane="0" toLane="0" via=":J4_0_0" dir="l" state="M"/>
    <connection from="E5" to="E6" fromLane="0" toLane="0" via=":J5_0_0" dir="l" state="M"/>
    <connection from="E6" to="E10" fromLane="0" toLane="0" via=":J3_8_0" dir="r" state="m"/>
    <connection from="E6" to="E7" fromLane="0" toLane="0" via=":J3_9_0" dir="s" state="m"/>
    <connection from="E6" to="-E3" fromLane="0" toLane="0" via=":J3_10_0" dir="L" state="m"/>
    <connection from="E6" to="E4" fromLane="0" toLane="0" via=":J3_11_0" dir="l" state="m"/>
    <connection from="E7" to="E8" fromLane="0" toLane="0" via=":J6_0_0" dir="r" state="M"/>
    <connection from="E8" to="E9" fromLane="0" toLane="0" via=":J7_0_0" dir="r" state="M"/>
    <connection from="E9" to="E7" fromLane="0" toLane="0" via=":J3_0_0" dir="r" state="m"/>
    <connection from="E9" to="-E3" fromLane="0" toLane="0" via=":J3_1_0" dir="R" state="m"/>
    <connection from="E9" to="E4" fromLane="0" toLane="0" via=":J3_2_0" dir="s" state="m"/>
    <connection from="E9" to="E10" fromLane="0" toLane="0" via=":J3_3_0" dir="l" state="m"/>

    <connection from=":J0_0" to="E0" fromLane="0" toLane="0" dir="s" state="M"/>
    <connection from=":J0_1" to="E3" fromLane="0" toLane="0" dir="s" state="M"/>
    <connection from=":J0_2" to="E0" fromLane="0" toLane="0" via=":J0_3_0" dir="l" state="m"/>
    <connection from=":J0_3" to="E0" fromLane="0" toLane="0" dir="l" state="M"/>
    <connection from=":J1_0" to="E1" fromLane="0" toLane="0" dir="l" state="M"/>
    <connection from=":J2_0" to="E2" fromLane="0" toLane="0" dir="l" state="M"/>
    <connection from=":J3_0" to="E7" fromLane="0" toLane="0" dir="r" state="M"/>
    <connection from=":J3_1" to="-E3" fromLane="0" toLane="0" dir="R" state="M"/>
    <connection from=":J3_2" to="E4" fromLane="0" toLane="0" dir="s" state="M"/>
    <connection from=":J3_3" to="E10" fromLane="0" toLane="0" dir="l" state="M"/>
    <connection from=":J3_4" to="E10" fromLane="0" toLane="0" dir="r" state="M"/>
    <connection from=":J3_5" to="E7" fromLane="0" toLane="0" dir="R" state="M"/>
    <connection from=":J3_6" to="-E3" fromLane="0" toLane="0" dir="s" state="M"/>
    <connection from=":J3_7" to="E4" fromLane="0" toLane="0" via=":J3_15_0" dir="l" state="m"/>
    <connection from=":J3_15" to="E4" fromLane="0" toLane="0" dir="l" state="M"/>
    <connection from=":J3_8" to="E10" fromLane="0" toLane="0" dir="r" state="M"/>
    <connection from=":J3_9" to="E7" fromLane="0" toLane="0" dir="s" state="M"/>
    <connection from=":J3_10" to="-E3" fromLane="0" toLane="0" dir="L" state="M"/>
    <connection from=":J3_11" to="E4" fromLane="0" toLane="0" dir="l" state="M"/>
    <connection from=":J3_12" to="E4" fromLane="0" toLane="0" dir="r" state="M"/>
    <connection from=":J3_13" to="E10" fromLane="0" toLane="0" dir="s" state="M"/>
    <connection from=":J3_14" to="E7" fromLane="0" toLane="0" via=":J3_16_0" dir="l" state="m"/>
    <connection from=":J3_16" to="E7" fromLane="0" toLane="0" dir="l" state="M"/>
    <connection from=":J4_0" to="E5" fromLane="0" toLane="0" dir="l" state="M"/>
    <connection from=":J5_0" to="E6" fromLane="0" toLane="0" dir="l" state="M"/>
    <connection from=":J6_0" to="E8" fromLane="0" toLane="0" dir="r" state="M"/>
    <connection from=":J7_0" to="E9" fromLane="0" toLane="0" dir="r" state="M"/>
    <connection from=":J8_0" to="E11" fromLane="0" toLane="0" dir="r" state="M"/>
    <connection from=":J9_0" to="E12" fromLane="0" toLane="0" dir="r" state="M"/>

</net>
